test/test_files/validation_tests/case_illinois200_resqlim.m
function mpc = case_illinois200_resqlim
%CASE_ILLINOIS200_RESQLIM

%% MATPOWER Case Format : Version 2
mpc.version = '2';

%%-----  Power Flow Data  -----%%
%% system MVA base
mpc.baseMVA = 100;

%% bus data
%    bus_i    type    Pd    Qd    Gs    Bs    area    Vm    Va    baseKV    zone    Vmax    Vmin    lam_P    lam_Q    mu_Vmax    mu_Vmin
mpc.bus = [
    1    1    0    0    0    0    1    0.998728133    -36.4850514    115    1    1.1    0.9    19.9100    0.0000    0.0000    0.0000;
    2    1    10.95    3.12    0    0    1    0.998549945    -36.5048507    115    1    1.1    0.9    19.9100    0.0000    0.0000    0.0000;
    3    1    0    0    0    0    1    1.01033749    -38.1868706    115    1    1.1    0.9    19.9100    0.0000    0.0000    0.0000;
    4    1    2.72    0.77    0    0    1    1.01029689    -38.1916659    115    1    1.1    0.9    19.9100    0.0000    0.0000    0.0000;
    5    1    0    0    0    0    1    1.02317551    -38.8143395    115    1    1.1    0.9    19.9100    0.0000    0.0000    0.0000;
    6    1    12.5    3.56    0    0    1    1.02297451    -38.8358206    115    1    1.1    0.9    19.9100    0.0000    0.0000    0.0000;
    7    1    0    0    0    0    1    0.989519576    -37.6410191    115    1    1.1    0.9    19.9100    0.0000    0.0000    0.0000;
    8    1    35.2    10.03    0    0    1    0.988969915    -37.7030182    115    1    1.1    0.9    19.9100    0.0000    0.0000    0.0000;
    9    1    0    0    0    0    1    0.993932958    -37.0240122    115    1    1.1    0.9    19.9100    0.0000    0.0000    0.0000;
    10    1    63.29    18.04    0    0    1    0.992836278    -37.1636606    115    1    1.1    0.9    19.9100    0.0000    0.0000    0.0000;
    11    1    0    0    0    0    1    1.03490877    -35.6278658    115    1    1.1    0.9    19.9100    0.0000    0.0000    0.0000;
    12    1    0.49    0.14    0    0    1    1.03490146    -35.6287519    115    1    1.1    0.9    19.9100    0.0000    0.0000    0.0000;
    13    1    4.04    1.15    0    0    1    1.03484452    -35.6352788    115    1    1.1    0.9    19.9100    0.0000    0.0000    0.0000;
    14    1    0    0    0    0    1    1.03312001    -34.3822658    230    1    1.1    0.9    19.9100    0.0000    0.0000    0.0000;
    15    1    0    0    0    30    1    1.03558943    -35.4980548    115    1    1.1    0.9    19.9100    0.0000    0.0000    0.0000;
    16    1    71.7    20.44    0    0    1    1.03457181    -35.6147098    115    1    1.1    0.9    19.9100    0.0000    0.0000    0.0000;
    17    1    0    0    0    0    1    1.0011451    -39.1611559    115    1    1.1    0.9    19.9100    0.0000    0.0000    0.0000;
    18    1    1.14    0.33    0    0    1    1.00112643    -39.1636195    115    1    1.1    0.9    19.9100    0.0000    0.0000    0.0000;
    19    1    1.23    0.35    0    0    1    1.00112802    -39.163218    115    1    1.1    0.9    19.9100    0.0000    0.0000    0.0000;
    20    1    1.81    0.52    0    0    1    1.00111649    -39.1644256    115    1    1.1    0.9    19.9100    0.0000    0.0000    0.0000;
    21    1    7.38    2.1    0    0    1    1.0010167    -39.1770355    115    1    1.1    0.9    19.9100    0.0000    0.0000    0.0000;
    22    1    0    0    0    0    1    1.03446564    -35.6514974    115    1    1.1    0.9    19.9100    0.0000    0.0000    0.0000;
    23    1    2.26    0.64    0    0    1    1.03443224    -35.6551852    115    1    1.1    0.9    19.9100    0.0000    0.0000    0.0000;
    24    1    3.84    1.09    0    0    1    1.03440781    -35.6574025    115    1    1.1    0.9    19.9100    0.0000    0.0000    0.0000;
    25    1    0    0    0    0    1    1.02571034    -39.0975415    115    1    1.1    0.9    19.9100    0.0000    0.0000    0.0000;
    26    1    2.13    0.61    0    0    1    1.0256794    -39.1009012    115    1    1.1    0.9    19.9100    0.0000    0.0000    0.0000;
    27    1    0    0    0    0    1    1.03505609    -35.7832306    115    1    1.1    0.9    19.9100    0.0000    0.0000    0.0000;
    28    1    3.74    1.07    0    0    1    1.03499389    -35.7908238    115    1    1.1    0.9    19.9100    0.0000    0.0000    0.0000;
    29    1    0    0    0    0    1    0.998858932    -36.2264819    115    1    1.1    0.9    19.9100    0.0000    0.0000    0.0000;
    30    1    87.62    24.97    0    0    1    0.997462179    -36.3742807    115    1    1.1    0.9    19.9100    0.0000    0.0000    0.0000;
    31    1    0    0    0    0    1    0.999391664    -39.5623288    115    1    1.1    0.9    19.9100    0.0000    0.0000    0.0000;
    32    1    0.7    0.2    0    0    1    0.999379218    -39.5638119    115    1    1.1    0.9    19.9100    0.0000    0.0000    0.0000;
    33    1    8.82    2.51    0    0    1    0.999253605    -39.579983    115    1    1.1    0.9    19.9100    0.0000    0.0000    0.0000;
    34    1    0    0    0    0    1    1.01792786    -36.9304316    115    1    1.1    0.9    19.9100    0.0000    0.0000    0.0000;
    35    1    33.26    9.48    0    0    1    1.0173969    -36.9950206    115    1    1.1    0.9    19.9100    0.0000    0.0000    0.0000;
    36    1    0    0    0    0    1    1.00594673    -39.6932069    115    1    1.1    0.9    19.9100    0.0000    0.0000    0.0000;
    37    1    4.89    1.39    0    0    1    1.00587389    -39.7019875    115    1    1.1    0.9    19.9100    0.0000    0.0000    0.0000;
    38    1    40.81    11.63    0    0    1    1.00526764    -39.7699747    115    1    1.1    0.9    19.9100    0.0000    0.0000    0.0000;
    39    1    11.86    3.38    0    0    1    0.998879387    -39.9135132    115    1    1.1    0.9    19.9100    0.0000    0.0000    0.0000;
    40    1    3.28    0.93    0    0    1    0.998833907    -39.9190883    115    1    1.1    0.9    19.9100    0.0000    0.0000    0.0000;
    41    1    61.87    17.63    0    0    1    1.01504312    -41.82717    115    1    1.1    0.9    19.9100    0.0000    0.0000    0.0000;
    42    1    17.01    4.85    0    0    1    1.00705892    -38.6470717    115    1    1.1    0.9    19.9100    0.0000    0.0000    0.0000;
    43    1    3.09    0.88    0    0    1    0.994385359    -38.626568    115    1    1.1    0.9    19.9100    0.0000    0.0000    0.0000;
    44    1    6.65    1.89    0    0    1    1.00490505    -38.4909202    115    1    1.1    0.9    19.9100    0.0000    0.0000    0.0000;
    45    1    0    0    0    0    1    1.0277578    -33.752176    230    1    1.1    0.9    19.9100    0.0000    0.0000    0.0000;
    46    1    8.68    2.47    0    0    1    1.02521229    -34.6334904    115    1    1.1    0.9    19.9100    0.0000    0.0000    0.0000;
    47    1    2.47    0.71    0    0    1    1.03164102    -35.0179657    115    1    1.1    0.9    19.9100    0.0000    0.0000    0.0000;
    48    1    2.87    0.82    0    0    1    1.0204691    -39.1060105    115    1    1.1    0.9    19.9100    0.0000    0.0000    0.0000;
    49    1    0    0    0    0    1    1.03228053    -37.8262145    13.8    1    1.1    0.9    19.9100    0.0000    0.0000    0.0000;
    50    1    0    0    0    0    1    1.02956049    -38.1324969    13.8    1    1.1    0.9    19.9100    0.0000    0.0000    0.0000;
    51    1    0    0    0    0    1    1.03382512    -37.6295543    13.8    1    1.1    0.9    19.9100    0.0000    0.0000    0.0000;
    52    1    0    0    0    0    1    1.02908304    -38.1922357    13.8    1    1.1    0.9    19.9100    0.0000    0.0000    0.0000;
    53    2    0    0    0    0    1    1.04    -36.3207808    13.8    1    1.1    0.9    19.9100    0.0000    0.0000    0.0000;
    54    1    4.27    1.22    0    0    1    1.02790936    -35.5189521    115    1    1.1    0.9    19.9100    0.0000    0.0000    0.0000;
    55    1    0    0    0    0    1    1.02471931    -34.5074605    230    1    1.1    0.9    19.9100    0.0000    0.0000    0.0000;
    56    1    1.79    0.51    0    0    1    1.02318355    -34.8827393    115    1    1.1    0.9    19.9100    0.0000    0.0000    0.0000;
    57    1    4.52    1.29    0    0    1    1.00556295    -38.9587682    115    1    1.1    0.9    19.9100    0.0000    0.0000    0.0000;
    58    1    5.79    1.65    0    0    1    1.01305715    -39.4709932    115    1    1.1    0.9    19.9100    0.0000    0.0000    0.0000;
    59    1    7.02    2    0    0    1    0.991696297    -39.2853283    115    1    1.1    0.9    19.9100    0.0000    0.0000    0.0000;
    60    1    5.63    1.6    0    0    1    1.01351207    -35.1855038    115    1    1.1    0.9    19.9100    0.0000    0.0000    0.0000;
    61    1    28.14    8.02    0    0    1    1.0213572    -35.1417151    115    1    1.1    0.9    19.9100    0.0000    0.0000    0.0000;
    62    1    34.29    9.77    0    0    1    1.00133496    -39.623941    115    1    1.1    0.9    19.9100    0.0000    0.0000    0.0000;
    63    1    12.79    3.64    0    0    1    1.02757251    -37.0213882    115    1    1.1    0.9    19.9100    0.0000    0.0000    0.0000;
    64    1    0    0    0    0    1    1.02911117    -38.0879744    115    1    1.1    0.9    19.9100    0.0000    0.0000    0.0000;
    65    2    0    0    0    0    1    1.04    -34.7961354    13.8    1    1.1    0.9    19.9100    0.0000    0.0000    0.0000;
    66    1    0    0    0    0    1    1.03578502    -34.4390752    115    1    1.1    0.9    19.9100    0.0000    0.0000    0.0000;
    67    1    0    0    0    0    1    1.03976363    -34.1014547    13.8    1    1.1    0.9    19.9100    0.0000    0.0000    0.0000;
    68    2    0    0    0    0    1    1.04    -30.5076147    13.8    1    1.1    0.9    19.9100    0.0000    0.0000    0.0000;
    69    2    0    0    0    0    1    1.04    -33.0368864    13.8    1    1.1    0.9    19.9100    0.0000    0.0000    0.0000;
    70    2    0    0    0    0    1    1.04    -31.483041    13.8    1    1.1    0.9    19.9100    0.0000    0.0000    0.0000;
    71    2    0    0    0    0    1    1.04    -33.2364013    13.8    1    1.1    0.9    19.9100    0.0000    0.0000    0.0000;
    72    2    0    0    0    0    1    1.04    -33.3402379    13.8    1    1.1    0.9    19.9100    0.0000    0.0000    0.0000;
    73    2    0    0    0    0    1    1.04    -32.2722185    13.8    1    1.1    0.9    19.9100    0.0000    0.0000    0.0000;
    74    1    29.51    8.41    0    0    1    1.00954101    -40.1608163    115    1    1.1    0.9    19.9100    0.0000    0.0000    0.0000;
    75    1    5.34    1.52    0    0    1    1.01451293    -34.7156746    115    1    1.1    0.9    19.9100    0.0000    0.0000    0.0000;
    76    1    0    0    0    0    1    1.03045373    -34.2428339    13.8    1    1.1    0.9    19.9100    0.0000    0.0000    0.0000;
    77    2    0    0    0    0    1    1.04    -33.9102376    13.8    1    1.1    0.9    19.9100    0.0000    0.0000    0.0000;
    78    2    0    0    0    0    1    1.01451293    -34.7156746    13.8    1    1.1    0.9    19.9100    0.0000    0.0000    0.0000;
    79    2    0    0    0    0    1    1.01451293    -34.7156746    13.8    1    1.1    0.9    19.9100    0.0000    0.0000    0.0000;
    80    1    2.38    0.68    0    0    1    1.0176246    -40.5081523    115    1    1.1    0.9    19.9100    0.0000    0.0000    0.0000;
    81    1    0    0    0    0    1    1.01980979    -36.3190326    230    1    1.1    0.9    19.9100    0.0000    0.0000    0.0000;
    82    1    11.96    3.41    0    0    1    1.01489568    -37.611333    115    1    1.1    0.9    19.9100    0.0000    0.0000    0.0000;
    83    1    4.29    1.22    0    0    1    1.01217688    -38.2354869    115    1    1.1    0.9    19.9100    0.0000    0.0000    0.0000;
    84    1    5.56    1.59    0    0    1    0.997439775    -38.5763589    115    1    1.1    0.9    19.9100    0.0000    0.0000    0.0000;
    85    1    7.74    2.21    0    0    1    0.998603189    -39.8761983    115    1    1.1    0.9    19.9100    0.0000    0.0000    0.0000;
    86    1    12.23    3.49    0    0    1    0.99148557    -37.3374856    115    1    1.1    0.9    19.9100    0.0000    0.0000    0.0000;
    87    1    0    0    0    0    1    1.02393349    -34.4260819    230    1    1.1    0.9    19.9100    0.0000    0.0000    0.0000;
    88    1    79.66    22.7    0    0    1    1.01791907    -36.5486316    115    1    1.1    0.9    19.9100    0.0000    0.0000    0.0000;
    89    1    86.04    24.52    0    0    1    1.01534434    -38.7310685    115    1    1.1    0.9    19.9100    0.0000    0.0000    0.0000;
    90    2    0    0    0    0    1    1.04    -37.5795549    13.8    1    1.1    0.9    19.9100    0.0000    0.0000    0.0000;
    91    1    0    0    0    0    1    1.02816674    -38.3510652    13.8    1    1.1    0.9    19.9100    0.0000    0.0000    0.0000;
    92    2    0    0    0    0    1    1.01534434    -38.7310685    13.8    1    1.1    0.9    19.9100    0.0000    0.0000    0.0000;
    93    1    4.91    1.4    0    0    1    1.03387551    -36.4655989    115    1    1.1    0.9    19.9100    0.0000    0.0000    0.0000;
    94    2    0    0    0    0    1    1.04    -33.7845894    13.8    1    1.1    0.9    19.9100    0.0000    0.0000    0.0000;
    95    1    4.11    1.17    0    30    1    1.0232382    -39.2267498    115    1    1.1    0.9    19.9100    0.0000    0.0000    0.0000;
    96    1    4.05    1.15    0    0    1    1.02139863    -36.5388611    115    1    1.1    0.9    19.9100    0.0000    0.0000    0.0000;
    97    1    10.87    3.1    0    0    1    1.00718812    -36.7462356    115    1    1.1    0.9    19.9100    0.0000    0.0000    0.0000;
    98    1    0    0    0    0    1    1.01137457    -33.8129891    230    1    1.1    0.9    19.9100    0.0000    0.0000    0.0000;
    99    1    18.04    5.14    0    0    1    1.00425977    -35.2519761    115    1    1.1    0.9    19.9100    0.0000    0.0000    0.0000;
    100    1    60.35    17.2    0    80    1    1.02480172    -41.2453658    115    1    1.1    0.9    19.9100    0.0000    0.0000    0.0000;
    101    1    0.77    0.22    0    0    1    0.993000655    -37.2271088    115    1    1.1    0.9    19.9100    0.0000    0.0000    0.0000;
    102    1    0    0    0    0    1    1.02643    -34.1969099    230    1    1.1    0.9    19.9100    0.0000    0.0000    0.0000;
    103    1    0    0    0    0    1    1.02280555    -34.9423845    115    1    1.1    0.9    19.9100    0.0000    0.0000    0.0000;
    104    2    0    0    0    0    1    1.04    -31.765046    13.8    1    1.1    0.9    19.9100    0.0000    0.0000    0.0000;
    105    2    0    0    0    0    1    1.04    -32.1996916    13.8    1    1.1    0.9    19.9100    0.0000    0.0000    0.0000;
    106    1    2.82    0.8    0    0    1    1.01832356    -35.5330029    115    1    1.1    0.9    19.9100    0.0000    0.0000    0.0000;
    107    1    71.96    20.51    0    0    1    0.993780956    -39.4019391    115    1    1.1    0.9    19.9100    0.0000    0.0000    0.0000;
    108    1    13.97    3.98    0    0    1    1.00945184    -35.4985752    115    1    1.1    0.9    19.9100    0.0000    0.0000    0.0000;
    109    1    8.26    2.35    0    0    1    1.00534433    -38.2757962    115    1    1.1    0.9    19.9100    0.0000    0.0000    0.0000;
    110    1    16.1    4.59    0    0    1    0.993138967    -37.1871796    115    1    1.1    0.9    19.9100    0.0000    0.0000    0.0000;
    111    1    14.23    4.05    0    0    1    1.01029436    -42.0636139    115    1    1.1    0.9    19.9100    0.0000    0.0000    0.0000;
    112    1    0    0    0    0    1    1.02093545    -34.8795401    230    1    1.1    0.9    19.9100    0.0000    0.0000    0.0000;
    113    1    0    0    0    0    1    1.00087331    -38.3901128    115    1    1.1    0.9    19.9100    0.0000    0.0000    0.0000;
    114    1    0    0    0    0    1    1.02308666    -34.6342664    13.8    1    1.1    0.9    19.9100    0.0000    0.0000    0.0000;
    115    2    0    0    0    0    1    1.04    -32.356098    13.8    1    1.1    0.9    19.9100    0.0000    0.0000    0.0000;
    116    1    0    0    0    0    1    1.01043107    -34.1686811    230    1    1.1    0.9    19.9100    0.0000    0.0000    0.0000;
    117    1    50.54    14.4    0    0    1    0.999204805    -36.6442753    115    1    1.1    0.9    19.9100    0.0000    0.0000    0.0000;
    118    1    5.84    1.66    0    0    1    1.00337506    -35.972466    115    1    1.1    0.9    19.9100    0.0000    0.0000    0.0000;
    119    1    26.03    7.42    0    0    1    0.989597881    -38.8868905    115    1    1.1    0.9    19.9100    0.0000    0.0000    0.0000;
    120    1    2.88    0.82    0    0    1    0.999616102    -39.6271805    115    1    1.1    0.9    19.9100    0.0000    0.0000    0.0000;
    121    1    0    0    0    0    1    1.03248246    -32.7723832    230    1    1.1    0.9    19.9100    0.0000    0.0000    0.0000;
    122    1    21.14    6.02    0    0    1    1.02627109    -34.8049779    115    1    1.1    0.9    19.9100    0.0000    0.0000    0.0000;
    123    1    0    0    0    0    1    1.02218655    -32.2999803    230    1    1.1    0.9    19.9100    0.0000    0.0000    0.0000;
    124    1    0    0    0    0    1    1.00829488    -34.9862436    115    1    1.1    0.9    19.9100    0.0000    0.0000    0.0000;
    125    2    0    0    0    0    1    1.04    -25.0004947    13.8    1    1.1    0.9    19.9100    0.0000    0.0000    0.0000;
    126    2    0    0    0    0    1    1.04    -27.6901159    13.8    1    1.1    0.9    19.9100    0.0000    0.0000    0.0000;
    127    2    0    0    0    0    1    1.04    -30.1087724    13.8    1    1.1    0.9    19.9100    0.0000    0.0000    0.0000;
    128    1    0    0    0    0    1    1.02039566    -34.8354144    230    1    1.1    0.9    19.9100    0.0000    0.0000    0.0000;
    129    1    105.76    30.14    0    0    1    0.99943208    -38.5470827    115    1    1.1    0.9    19.9100    0.0000    0.0000    0.0000;
    130    1    6.02    1.72    0    0    1    1.01456685    -35.9843415    115    1    1.1    0.9    19.9100    0.0000    0.0000    0.0000;
    131    1    44.86    12.79    0    0    1    0.994070419    -37.0584826    115    1    1.1    0.9    19.9100    0.0000    0.0000    0.0000;
    132    1    39.98    11.39    0    0    1    0.990092134    -38.564048    115    1    1.1    0.9    19.9100    0.0000    0.0000    0.0000;
    133    1    0    0    0    0    1    1.02424508    -32.3066214    230    1    1.1    0.9    19.9100    0.0000    0.0000    0.0000;
    134    1    0    0    0    0    1    1.01956016    -33.7695852    115    1    1.1    0.9    19.9100    0.0000    0.0000    0.0000;
    135    2    0    0    0    0    1    1.04    -28.4086074    13.8    1    1.1    0.9    19.9100    0.0000    0.0000    0.0000;
    136    2    0    0    0    0    1    1.04    -29.4165558    13.8    1    1.1    0.9    19.9100    0.0000    0.0000    0.0000;
    137    1    1.86    0.53    0    0    1    1.01376748    -37.6282925    115    1    1.1    0.9    19.9100    0.0000    0.0000    0.0000;
    138    1    3.29    0.94    0    0    1    1.00781266    -38.5796515    115    1    1.1    0.9    19.9100    0.0000    0.0000    0.0000;
    139    1    10.14    2.89    0    0    1    0.994674628    -39.3767159    115    1    1.1    0.9    19.9100    0.0000    0.0000    0.0000;
    140    1    12.18    3.47    0    0    1    1.00631828    -35.3517532    115    1    1.1    0.9    19.9100    0.0000    0.0000    0.0000;
    141    1    2.11    0.6    0    0    1    0.993073948    -37.1833199    115    1    1.1    0.9    19.9100    0.0000    0.0000    0.0000;
    142    1    55.26    15.75    0    0    1    0.991449481    -37.1943411    115    1    1.1    0.9    19.9100    0.0000    0.0000    0.0000;
    143    1    43.22    12.32    0    0    1    1.00889677    -39.5783786    115    1    1.1    0.9    19.9100    0.0000    0.0000    0.0000;
    144    1    13.43    3.83    0    0    1    1.00377245    -36.9648835    115    1    1.1    0.9    19.9100    0.0000    0.0000    0.0000;
    145    1    28.32    8.07    0    0    1    1.00937787    -37.6945458    115    1    1.1    0.9    19.9100    0.0000    0.0000    0.0000;
    146    1    0    0    0    0    1    1.0169772    -38.0209649    115    1    1.1    0.9    19.9100    0.0000    0.0000    0.0000;
    147    1    0    0    0    0    1    1.03817103    -35.7288969    13.8    1    1.1    0.9    19.9100    0.0000    0.0000    0.0000;
    148    1    47.49    13.53    0    0    1    0.98497935    -38.2393111    115    1    1.1    0.9    19.9100    0.0000    0.0000    0.0000;
    149    1    0    0    0    0    1    1.02764087    -33.7258435    230    1    1.1    0.9    19.9100    0.0000    0.0000    0.0000;
    150    1    0    0    0    0    1    1.02336915    -35.739372    115    1    1.1    0.9    19.9100    0.0000    0.0000    0.0000;
    151    2    0    0    0    0    1    1.04    -31.9383044    13.8    1    1.1    0.9    19.9100    0.0000    0.0000    0.0000;
    152    2    0    0    0    0    1    1.04    -27.8656557    13.8    1    1.1    0.9    19.9100    0.0000    0.0000    0.0000;
    153    2    0    0    0    0    1    1.04    -26.0899371    13.8    1    1.1    0.9    19.9100    0.0000    0.0000    0.0000;
    154    2    0    0    0    0    1    1.04    -29.4784413    13.8    1    1.1    0.9    19.9100    0.0000    0.0000    0.0000;
    155    2    0    0    0    0    1    1.04    -29.60765    13.8    1    1.1    0.9    19.9100    0.0000    0.0000    0.0000;
    156    1    0    0    0    0    1    1.02232826    -32.4275482    230    1    1.1    0.9    19.9100    0.0000    0.0000    0.0000;
    157    1    21.88    6.24    0    0    1    1.01876819    -33.5743396    115    1    1.1    0.9    19.9100    0.0000    0.0000    0.0000;
    158    1    14.36    4.09    0    0    1    1.0346885    -35.2143875    115    1    1.1    0.9    19.9100    0.0000    0.0000    0.0000;
    159    1    2.22    0.63    0    0    1    1.00198602    -39.5163949    115    1    1.1    0.9    19.9100    0.0000    0.0000    0.0000;
    160    1    0    0    0    0    1    1.00817848    -38.7242477    115    1    1.1    0.9    19.9100    0.0000    0.0000    0.0000;
    161    2    0    0    0    0    1    1.00817848    -38.7242477    13.8    1    1.1    0.9    19.9100    0.0000    0.0000    0.0000;
    162    1    2.15    0.61    0    0    1    1.00246499    -36.9070687    115    1    1.1    0.9    19.9100    0.0000    0.0000    0.0000;
    163    1    73.93    21.07    0    0    1    1.01235903    -41.8436345    115    1    1.1    0.9    19.9100    0.0000    0.0000    0.0000;
    164    2    0    0    0    0    1    1.01235903    -41.8436345    13.8    1    1.1    0.9    19.9100    0.0000    0.0000    0.0000;
    165    2    0    0    0    0    1    1.01235903    -41.8436345    13.8    1    1.1    0.9    19.9100    0.0000    0.0000    0.0000;
    166    2    0    0    0    0    1    1.01235903    -41.8436345    13.8    1    1.1    0.9    19.9100    0.0000    0.0000    0.0000;
    167    1    0    0    0    0    1    1.02182813    -41.5644527    13.8    1    1.1    0.9    19.9100    0.0000    0.0000    0.0000;
    168    2    0    0    0    0    1    1.01235903    -41.8436345    13.8    1    1.1    0.9    19.9100    0.0000    0.0000    0.0000;
    169    2    0    0    0    0    1    1.01235903    -41.8436345    13.8    1    1.1    0.9    19.9100    0.0000    0.0000    0.0000;
    170    1    0    0    0    0    1    1.03015818    -41.3057781    13.8    1    1.1    0.9    19.9100    0.0000    0.0000    0.0000;
    171    1    12.49    3.56    0    0    1    1.00609442    -39.6560199    115    1    1.1    0.9    19.9100    0.0000    0.0000    0.0000;
    172    1    8.68    2.47    0    0    1    1.01889357    -40.9844566    115    1    1.1    0.9    19.9100    0.0000    0.0000    0.0000;
    173    1    14.06    4.01    0    0    1    1.01191162    -41.571446    115    1    1.1    0.9    19.9100    0.0000    0.0000    0.0000;
    174    1    4.47    1.27    0    0    1    1.02044756    -40.0660016    115    1    1.1    0.9    19.9100    0.0000    0.0000    0.0000;
    175    1    11.8    3.36    0    0    1    1.00993472    -41.9950885    115    1    1.1    0.9    19.9100    0.0000    0.0000    0.0000;
    176    1    30.69    8.75    0    0    1    1.01312294    -37.1711685    115    1    1.1    0.9    19.9100    0.0000    0.0000    0.0000;
    177    1    15.45    4.4    0    0    1    1.00732234    -39.2506425    115    1    1.1    0.9    19.9100    0.0000    0.0000    0.0000;
    178    1    0    0    0    0    1    1.01956721    -37.0895945    230    1    1.1    0.9    19.9100    0.0000    0.0000    0.0000;
    179    1    38.1    10.86    0    0    1    1.01838495    -40.1528942    115    1    1.1    0.9    19.9100    0.0000    0.0000    0.0000;
    180    1    12.5    3.56    0    0    1    1.0184815    -40.9859692    115    1    1.1    0.9    19.9100    0.0000    0.0000    0.0000;
    181    1    76.87    21.91    0    0    1    1.01188646    -38.2313859    115    1    1.1    0.9    19.9100    0.0000    0.0000    0.0000;
    182    1    0    0    0    0    1    1.03598698    -35.4314136    13.8    1    1.1    0.9    19.9100    0.0000    0.0000    0.0000;
    183    1    0    0    0    0    1    1.0264706    -36.5863332    13.8    1    1.1    0.9    19.9100    0.0000    0.0000    0.0000;
    184    1    17.26    4.92    0    0    1    1.02233995    -39.8752517    115    1    1.1    0.9    19.9100    0.0000    0.0000    0.0000;
    185    1    17.42    4.96    0    0    1    1.01301695    -37.1962966    115    1    1.1    0.9    19.9100    0.0000    0.0000    0.0000;
    186    1    3.12    0.89    0    0    1    1.01082587    -37.2324683    115    1    1.1    0.9    19.9100    0.0000    0.0000    0.0000;
    187    1    0    0    0    0    1    1.03501087    -31.7775571    230    1    1.1    0.9    19.9100    0.0000    0.0000    0.0000;
    188    1    0    0    0    0    1    1.02610096    -35.9723494    115    1    1.1    0.9    19.9100    0.0000    0.0000    0.0000;
    189    3    0    0    0    0    1    1.04    -29.418352    13.8    1    1.1    0.9    19.9100    0.0000    0.0000    0.0000;
    190    1    26.41    7.53    0    0    1    1.00458994    -40.3824543    115    1    1.1    0.9    19.9100    0.0000    0.0000    0.0000;
    191    1    11.67    3.32    0    0    1    1.0244806    -38.9320822    115    1    1.1    0.9    19.9100    0.0000    0.0000    0.0000;
    192    1    72.21    20.58    0    0    1    0.993652569    -39.5641123    115    1    1.1    0.9    19.9100    0.0000    0.0000    0.0000;
    193    1    32.61    9.29    0    0    1    0.994906282    -36.9179958    115    1    1.1    0.9    19.9100    0.0000    0.0000    0.0000;
    194    1    60.67    17.29    0    50    1    1.02039422    -37.0421978    115    1    1.1    0.9    19.9100    0.0000    0.0000    0.0000;
    195    1    0    0    0    0    1    1.0115778    -38.2324899    115    1    1.1    0.9    19.9100    0.0000    0.0000    0.0000;
    196    2    0    0    0    0    1    1.0115778    -38.2324899    13.8    1    1.1    0.9    19.9100    0.0000    0.0000    0.0000;
    197    2    0    0    0    0    1    1.0115778    -38.2324899    13.8    1    1.1    0.9    19.9100    0.0000    0.0000    0.0000;
    198    1    7.97    2.27    0    0    1    1.00447263    -36.0428853    115    1    1.1    0.9    19.9100    0.0000    0.0000    0.0000;
    199    1    6.69    1.91    0    0    1    1.02167142    -40.2422955    115    1    1.1    0.9    19.9100    0.0000    0.0000    0.0000;
    200    1    14.97    4.27    0    0    1    1.00371183    -37.9251331    115    1    1.1    0.9    19.9100    0.0000    0.0000    0.0000;
];

%% generator data
%    bus    Pg    Qg    Qmax    Qmin    Vg    mBase    status    Pmax    Pmin    Pc1    Pc2    Qc1min    Qc1max    Qc2min    Qc2max    ramp_agc    ramp_10    ramp_30    ramp_q    apf    mu_Pmax    mu_Pmin    mu_Qmax    mu_Qmin
mpc.gen = [
    49    4.53    2.11    2.11    -0.55    1.04    5.44    1    4.53    1.36    0    0    0    0    0    0    0    0    0    0    0    0.0000    0.0000    0.0000    0.0000;
    50    4.53    2.11    2.11    -0.55    1.04    5.44    1    4.53    1.36    0    0    0    0    0    0    0    0    0    0    0    0.0000    0.0000    0.0000    0.0000;
    51    4.53    2.11    2.11    -0.55    1.04    5.44    1    4.53    1.36    0    0    0    0    0    0    0    0    0    0    0    0.0000    0.0000    0.0000    0.0000;
    52    4.53    2.11    2.11    -0.55    1.04    5.44    1    4.53    1.36    0    0    0    0    0    0    0    0    0    0    0    0.0000    0.0000    0.0000    0.0000;
    53    9.07    3.40683903    4.23    -1.11    1.04    10.88    1    9.07    2.72    0    0    0    0    0    0    0    0    0    0    0    0.0000    0.0000    0.0000    0.0000;
    65    60.66    12.1235402    32.04    -21.66    1.04    180.48    1    150.4    45.12    0    0    0    0    0    0    0    0    0    0    0    0.0000    0.0000    0.0000    0.0000;
    67    4.7    2.19    2.19    -0.57    1.04    5.64    1    4.7    1.41    0    0    0    0    0    0    0    0    0    0    0    0.0000    0.0000    0.0000    0.0000;
    68    27.92    1.88485775    13.01    -3.41    1.04    33.5    1    27.92    8.38    0    0    0    0    0    0    0    0    0    0    0    0.0000    0.0000    0.0000    0.0000;
    69    27.92    3.65814685    13.01    -3.41    1.04    33.5    1    27.92    8.38    0    0    0    0    0    0    0    0    0    0    0    0.0000    0.0000    0.0000    0.0000;
    70    27.92    1.95199517    13.01    -3.41    1.04    33.5    1    27.92    8.38    0    0    0    0    0    0    0    0    0    0    0    0.0000    0.0000    0.0000    0.0000;
    71    27.92    4.45877942    13.01    -3.41    1.04    33.5    1    27.92    8.38    0    0    0    0    0    0    0    0    0    0    0    0.0000    0.0000    0.0000    0.0000;
    72    27.92    4.82132501    13.01    -3.41    1.04    33.5    1    27.92    8.38    0    0    0    0    0    0    0    0    0    0    0    0.0000    0.0000    0.0000    0.0000;
    73    27.92    2.20603974    13.01    -3.41    1.04    33.5    1    27.92    8.38    0    0    0    0    0    0    0    0    0    0    0    0.0000    0.0000    0.0000    0.0000;
    76    1.2    2.04    2.04    -0.44    1.04    4.8    1    4    1.2    0    0    0    0    0    0    0    0    0    0    0    0.0000    0.0000    0.0000    0.0000;
    77    0.72    1.1876196    1.22    -0.27    1.04    2.88    1    2.4    0.72    0    0    0    0    0    0    0    0    0    0    0    0.0000    0.0000    0.0000    0.0000;
    78    0    0    9.16    -2    1.04    21.6    0    18    5.4    0    0    0    0    0    0    0    0    0    0    0    0.0000    0.0000    0.0000    0.0000;
    79    0    0    9.16    -2    1.04    21.6    0    18    5.4    0    0    0    0    0    0    0    0    0    0    0    0.0000    0.0000    0.0000    0.0000;
    90    0.96    1.10873003    1.63    -0.36    1.04    3.84    1    3.2    0.96    0    0    0    0    0    0    0    0    0    0    0    0.0000    0.0000    0.0000    0.0000;
    91    1.5    2.55    2.55    -0.55    1.04    6    1    5    1.5    0    0    0    0    0    0    0    0    0    0    0    0.0000    0.0000    0.0000    0.0000;
    92    0    0    3.21    -0.7    1.04    7.56    0    6.3    1.89    0    0    0    0    0    0    0    0    0    0    0    0.0000    0.0000    0.0000    0.0000;
    94    18    2.00425384    8.39    -2.2    1.04    21.6    1    18    5.4    0    0    0    0    0    0    0    0    0    0    0    0.0000    0.0000    0.0000    0.0000;
    104    52    15.9343014    21.09    -14.26    1.04    118.8    1    99    29.7    0    0    0    0    0    0    0    0    0    0    0    0.0000    0.0000    0.0000    0.0000;
    105    63    23.8142253    42.17    -28.51    1.04    237.6    1    198    59.4    0    0    0    0    0    0    0    0    0    0    0    0.0000    0.0000    0.0000    0.0000;
    114    1.08    0.36    0.36    -0.24    1.04    2.04    1    1.7    0.51    0    0    0    0    0    0    0    0    0    0    0    0.0000    0.0000    0.0000    0.0000;
    115    75.12    31.6948959    31.95    -21.6    1.04    180    1    150    45    0    0    0    0    0    0    0    0    0    0    0    0.0000    0.0000    0.0000    0.0000;
    125    130.05    20.385361    60.6    -15.87    1.04    156.06    1    130.05    39.02    0    0    0    0    0    0    0    0    0    0    0    0.0000    0.0000    0.0000    0.0000;
    126    130.05    30.3442168    60.6    -15.87    1.04    156.06    1    130.05    39.02    0    0    0    0    0    0    0    0    0    0    0    0.0000    0.0000    0.0000    0.0000;
    127    130.05    56.8073304    60.6    -15.87    1.04    156.06    1    130.05    39.02    0    0    0    0    0    0    0    0    0    0    0    0.0000    0.0000    0.0000    0.0000;
    135    216.77    53.465141    208.02    -54.46    1.04    535.68    1    446.4    133.92    0    0    0    0    0    0    0    0    0    0    0    0.0000    0.0000    0.0000    0.0000;
    136    196.42    61.4868064    208.02    -54.46    1.04    535.68    1    446.4    133.92    0    0    0    0    0    0    0    0    0    0    0    0.0000    0.0000    0.0000    0.0000;
    147    42    21.41    21.41    -14.47    1.04    120.6    1    100.5    30.15    0    0    0    0    0    0    0    0    0    0    0    0.0000    0.0000    0.0000    0.0000;
    151    5.4    1.94228506    2.52    -0.66    1.04    6.48    1    5.4    1.62    0    0    0    0    0    0    0    0    0    0    0    0.0000    0.0000    0.0000    0.0000;
    152    77.22    11.656668    35.99    -9.42    1.04    92.67    1    77.22    23.17    0    0    0    0    0    0    0    0    0    0    0    0.0000    0.0000    0.0000    0.0000;
    153    77.22    9.80009345    35.99    -9.42    1.04    92.67    1    77.22    23.17    0    0    0    0    0    0    0    0    0    0    0    0.0000    0.0000    0.0000    0.0000;
    154    77.22    13.4699648    35.99    -9.42    1.04    92.67    1    77.22    23.17    0    0    0    0    0    0    0    0    0    0    0    0.0000    0.0000    0.0000    0.0000;
    155    77.22    13.7128148    35.99    -9.42    1.04    92.67    1    77.22    23.17    0    0    0    0    0    0    0    0    0    0    0    0.0000    0.0000    0.0000    0.0000;
    161    0    0    70.55    -15.38    1.04    166.32    0    138.6    41.58    0    0    0    0    0    0    0    0    0    0    0    0.0000    0.0000    0.0000    0.0000;
    164    0    0    6.11    -1.33    1.04    14.4    0    12    3.6    0    0    0    0    0    0    0    0    0    0    0    0.0000    0.0000    0.0000    0.0000;
    165    0    0    13.23    -2.89    1.04    31.2    0    26    7.8    0    0    0    0    0    0    0    0    0    0    0    0.0000    0.0000    0.0000    0.0000;
    166    0    0    4.78    -1.04    1.04    11.28    0    9.4    2.82    0    0    0    0    0    0    0    0    0    0    0    0.0000    0.0000    0.0000    0.0000;
    167    2.82    4.78    4.78    -1.04    1.04    11.28    1    9.4    2.82    0    0    0    0    0    0    0    0    0    0    0    0.0000    0.0000    0.0000    0.0000;
    168    0    0    4.78    -1.04    1.04    11.28    0    9.4    2.82    0    0    0    0    0    0    0    0    0    0    0    0.0000    0.0000    0.0000    0.0000;
    169    0    0    4.78    -1.04    1.04    11.28    0    9.4    2.82    0    0    0    0    0    0    0    0    0    0    0    0.0000    0.0000    0.0000    0.0000;
    170    2.82    4.78    4.78    -1.04    1.04    11.28    1    9.4    2.82    0    0    0    0    0    0    0    0    0    0    0    0.0000    0.0000    0.0000    0.0000;
    182    17.5    8.16    8.16    -2.14    1.04    21    1    17.5    5.25    0    0    0    0    0    0    0    0    0    0    0    0.0000    0.0000    0.0000    0.0000;
    183    26.6    12.4    12.4    -3.25    1.04    31.92    1    26.6    7.98    0    0    0    0    0    0    0    0    0    0    0    0.0000    0.0000    0.0000    0.0000;
    189    569.140625    56.2206429    209.45    -46.67    1.04    682.98    1    569.15    170.75    0    0    0    0    0    0    0    0    0    0    0    0.0000    0.0000    0.0000    0.0000;
    196    0    0    34.36    -7.49    1.04    81    0    67.5    20.25    0    0    0    0    0    0    0    0    0    0    0    0.0000    0.0000    0.0000    0.0000;
    197    0    0    34.36    -7.49    1.04    81    0    67.5    20.25    0    0    0    0    0    0    0    0    0    0    0    0.0000    0.0000    0.0000    0.0000;
];

%% branch data
%    fbus    tbus    r    x    b    rateA    rateB    rateC    ratio    angle    status    angmin    angmax    Pf    Qf    Pt    Qt    mu_Sf    mu_St    mu_angmin    mu_angmax
mpc.branch = [
    2    1    0.000673    0.003339    0    100    0    0    0    0    1    0    0    -10.9500    -3.1200    10.9509    3.1243    0.0000    0.0000    0.0000    0.0000;
    1    119    0.018542    0.119758    0.02285    221.1    0    0    0    0    1    0    0    35.0369    1.7749    -34.8071    -2.5493    0.0000    0.0000    0.0000    0.0000;
    124    1    0.005615    0.036268    0.00692    221.1    0    0    0    0    1    0    0    75.0897    15.5695    -74.7643    -14.1645    0.0000    0.0000    0.0000    0.0000;
    193    1    0.004258    0.027501    0.00525    221.1    0    0    0    0    1    0    0    -28.7374    -9.5336    28.7766    9.2653    0.0000    0.0000    0.0000    0.0000;
    4    3    0.000573    0.003303    0    100    0    0    0    0    1    0    0    -2.7200    -0.7700    2.7200    0.7703    0.0000    0.0000    0.0000    0.0000;
    57    3    0.008505    0.058098    0.00988    221.1    0    0    0    0    1    0    0    -24.2254    -5.0583    24.2765    4.4036    0.0000    0.0000    0.0000    0.0000;
    3    137    0.005889    0.038035    0.00726    221.1    0    0    0    0    1    0    0    -26.9965    -5.1739    27.0399    4.7104    0.0000    0.0000    0.0000    0.0000;
    6    5    0.000694    0.003337    0    100    0    0    0    0    1    0    0    -12.5000    -3.5600    12.5011    3.5654    0.0000    0.0000    0.0000    0.0000;
    48    5    0.006246    0.043513    0.00711    221.1    0    0    0    0    1    0    0    -12.8569    -4.8407    12.8680    4.1757    0.0000    0.0000    0.0000    0.0000;
    5    64    0.007877    0.054875    0.00897    221.1    0    0    0    0    1    0    0    -25.3691    -7.7411    25.4215    7.1617    0.0000    0.0000    0.0000    0.0000;
    8    7    0.000634    0.003189    0    100    0    0    0    0    1    0    0    -35.2000    -10.0300    35.2087    10.0737    0.0000    0.0000    0.0000    0.0000;
    7    86    0.003756    0.024259    0.00463    221.1    0    0    0    0    1    0    0    -22.1273    -4.7632    22.1469    4.4354    0.0000    0.0000    0.0000    0.0000;
    7    101    0.003597    0.023232    0.00443    221.1    0    0    0    0    1    0    0    -32.0639    -9.9690    32.1051    9.8002    0.0000    0.0000    0.0000    0.0000;
    7    148    0.008667    0.05598    0.01068    221.1    0    0    0    0    1    0    0    18.9825    4.6586    -18.9482    -5.4781    0.0000    0.0000    0.0000    0.0000;
    10    9    0.000585    0.003967    0    100    0    0    0    0    1    0    0    -63.2900    -18.0400    63.3157    18.2143    0.0000    0.0000    0.0000    0.0000;
    9    124    0.008069    0.055123    0.00938    221.1    0    0    0    0    1    0    0    -66.8379    -15.4260    67.2210    17.1034    0.0000    0.0000    0.0000    0.0000;
    131    9    0.004139    0.026732    0.0051    221.1    0    0    0    0    1    0    0    -2.0942    0.5841    2.0944    -1.0866    0.0000    0.0000    0.0000    0.0000;
    9    141    0.004446    0.03097    0.00506    221.1    0    0    0    0    1    0    0    9.0722    1.2169    -9.0684    -1.6898    0.0000    0.0000    0.0000    0.0000;
    9    193    0.003695    0.025244    0.00429    221.1    0    0    0    0    1    0    0    -7.6444    -2.9186    7.6469    2.5111    0.0000    0.0000    0.0000    0.0000;
    12    11    0.000534    0.003533    0    100    0    0    0    0    1    0    0    -0.4900    -0.1400    0.4900    0.1400    0.0000    0.0000    0.0000    0.0000;
    13    11    0.000619    0.003606    0    100    0    0    0    0    1    0    0    -4.0400    -1.1500    4.0401    1.1506    0.0000    0.0000    0.0000    0.0000;
    11    15    0.010408    0.06722    0.01282    221.1    0    0    0    0    1    0    0    -3.6855    -1.1597    3.6869    -0.2056    0.0000    0.0000    0.0000    0.0000;
    11    93    0.018394    0.128141    0.02095    221.1    0    0    0    0    1    0    0    12.0916    -1.9339    -12.0664    -0.1320    0.0000    0.0000    0.0000    0.0000;
    158    11    0.008519    0.058199    0.0099    221.1    0    0    0    0    1    0    0    12.9499    -2.7692    -12.9362    1.8030    0.0000    0.0000    0.0000    0.0000;
    15    14    0.000637    0.027526    0    300    0    0    1    0    1    0    0    -75.4156    11.7728    75.4502    -10.2774    0.0000    0.0000    0.0000    0.0000;
    14    121    0.007013    0.050098    0.09134    402.36    0    0    0    0    1    0    0    -58.3719    5.4519    58.6027    -13.5456    0.0000    0.0000    0.0000    0.0000;
    14    149    0.009133    0.065244    0.11895    402.36    0    0    0    0    1    0    0    -17.0783    4.8255    17.1140    -17.1997    0.0000    0.0000    0.0000    0.0000;
    16    15    0.000553    0.0032    0    100    0    0    0    0    1    0    0    -71.7000    -20.4400    71.7287    20.6062    0.0000    0.0000    0.0000    0.0000;
    18    17    0.000503    0.003926    0    100    0    0    0    0    1    0    0    -1.1400    -0.3300    1.1400    0.3301    0.0000    0.0000    0.0000    0.0000;
    19    17    0.000514    0.003079    0    100    0    0    0    0    1    0    0    -1.2300    -0.3500    1.2300    0.3501    0.0000    0.0000    0.0000    0.0000;
    20    17    0.000623    0.003339    0    100    0    0    0    0    1    0    0    -1.8100    -0.5200    1.8100    0.5201    0.0000    0.0000    0.0000    0.0000;
    21    17    0.00062    0.00394    0    100    0    0    0    0    1    0    0    -7.3800    -2.1000    7.3804    2.1023    0.0000    0.0000    0.0000    0.0000;
    109    17    0.009789    0.068198    0.01115    221.1    0    0    0    0    1    0    0    23.2395    2.4673    -23.1863    -3.2189    0.0000    0.0000    0.0000    0.0000;
    17    120    0.010316    0.070473    0.01199    221.1    0    0    0    0    1    0    0    11.6259    -0.0836    -11.6120    -1.0211    0.0000    0.0000    0.0000    0.0000;
    23    22    0.000616    0.003222    0    100    0    0    0    0    1    0    0    -2.2600    -0.6400    2.2600    0.6402    0.0000    0.0000    0.0000    0.0000;
    24    22    0.000687    0.003067    0    100    0    0    0    0    1    0    0    -3.8400    -1.0900    3.8401    1.0905    0.0000    0.0000    0.0000    0.0000;
    22    27    0.011379    0.073494    0.01402    221.1    0    0    0    0    1    0    0    3.1462    -2.0645    -3.1449    0.5713    0.0000    0.0000    0.0000    0.0000;
    158    22    0.012701    0.086769    0.01476    221.1    0    0    0    0    1    0    0    9.2566    -1.8434    -9.2463    0.3339    0.0000    0.0000    0.0000    0.0000;
    26    25    0.00061    0.003071    0    100    0    0    0    0    1    0    0    -2.1300    -0.6100    2.1300    0.6101    0.0000    0.0000    0.0000    0.0000;
    25    64    0.007643    0.053244    0.0087    221.1    0    0    0    0    1    0    0    -35.1036    -1.6624    35.1932    1.3684    0.0000    0.0000    0.0000    0.0000;
    199    25    0.009909    0.064003    0.01221    221.1    0    0    0    0    1    0    0    -32.8709    -1.6686    32.9735    1.0523    0.0000    0.0000    0.0000    0.0000;
    28    27    0.000587    0.003964    0    100    0    0    0    0    1    0    0    -3.7400    -1.0700    3.7401    1.0706    0.0000    0.0000    0.0000    0.0000;
    27    93    0.025172    0.175362    0.02867    221.1    0    0    0    0    1    0    0    7.2248    -1.8327    -7.2125    -1.1497    0.0000    0.0000    0.0000    0.0000;
    27    158    0.020429    0.131945    0.02517    221.1    0    0    0    0    1    0    0    -7.8200    0.1908    7.8321    -2.8082    0.0000    0.0000    0.0000    0.0000;
    30    29    0.000694    0.003131    0    100    0    0    0    0    1    0    0    -87.6200    -24.9700    87.6779    25.2312    0.0000    0.0000    0.0000    0.0000;
    124    29    0.005561    0.038742    0.00633    221.1    0    0    0    0    1    0    0    58.6712    16.4235    -58.4676    -15.6424    0.0000    0.0000    0.0000    0.0000;
    29    140    0.007895    0.055004    0.00899    221.1    0    0    0    0    1    0    0    -29.2103    -9.5888    29.2845    9.2016    0.0000    0.0000    0.0000    0.0000;
    32    31    0.000667    0.003884    0    100    0    0    0    0    1    0    0    -0.7000    -0.2000    0.7000    0.2000    0.0000    0.0000    0.0000    0.0000;
    33    31    0.000528    0.003639    0    100    0    0    0    0    1    0    0    -8.8200    -2.5100    8.8204    2.5131    0.0000    0.0000    0.0000    0.0000;
    177    31    0.008406    0.05856    0.00957    221.1    0    0    0    0    1    0    0    11.0853    11.5907    -11.0630    -12.3990    0.0000    0.0000    0.0000    0.0000;
    192    31    0.008088    0.05525    0.0094    221.1    0    0    0    0    1    0    0    -1.5340    -10.5611    1.5426    9.6859    0.0000    0.0000    0.0000    0.0000;
    35    34    0.000575    0.003674    0    100    0    0    0    0    1    0    0    -33.2600    -9.4800    33.2666    9.5225    0.0000    0.0000    0.0000    0.0000;
    34    54    0.006268    0.042819    0.00729    221.1    0    0    0    0    1    0    0    -62.2243    -14.2564    62.4701    15.1732    0.0000    0.0000    0.0000    0.0000;
    34    137    0.006911    0.044639    0.00852    221.1    0    0    0    0    1    0    0    28.9576    4.7340    -28.8999    -5.2404    0.0000    0.0000    0.0000    0.0000;
    37    36    0.000552    0.003328    0    100    0    0    0    0    1    0    0    -4.8900    -1.3900    4.8901    1.3909    0.0000    0.0000    0.0000    0.0000;
    38    36    0.00067    0.003511    0    100    0    0    0    0    1    0    0    -40.8100    -11.6300    40.8219    11.6926    0.0000    0.0000    0.0000    0.0000;
    58    36    0.010889    0.07439    0.01266    221.1    0    0    0    0    1    0    0    6.5907    8.0790    -6.5780    -9.2825    0.0000    0.0000    0.0000    0.0000;
    83    36    0.009615    0.066986    0.01095    221.1    0    0    0    0    1    0    0    39.2806    3.7067    -39.1341    -3.8009    0.0000    0.0000    0.0000    0.0000;
    40    39    0.000505    0.003103    0    100    0    0    0    0    1    0    0    -3.2800    -0.9300    3.2801    0.9304    0.0000    0.0000    0.0000    0.0000;
    39    85    0.008702    0.060625    0.00991    221.1    0    0    0    0    1    0    0    -0.9859    0.1025    0.9860    -1.0902    0.0000    0.0000    0.0000    0.0000;
    159    39    0.007332    0.05108    0.00835    221.1    0    0    0    0    1    0    0    14.1701    3.6879    -14.1542    -4.4129    0.0000    0.0000    0.0000    0.0000;
    41    100    0.004595    0.029676    0.00566    221.1    0    0    0    0    1    0    0    -39.7797    -27.3299    39.8829    27.4075    0.0000    0.0000    0.0000    0.0000;
    41    163    0.003165    0.021623    0.00368    221.1    0    0    0    0    1    0    0    3.1426    11.9505    -3.1377    -12.2956    0.0000    0.0000    0.0000    0.0000;
    41    180    0.009408    0.060766    0.01159    221.1    0    0    0    0    1    0    0    -25.2329    -2.2506    25.2913    1.4295    0.0000    0.0000    0.0000    0.0000;
    44    42    0.012256    0.085383    0.01396    221.1    0    0    0    0    1    0    0    2.8091    -3.6387    -2.8071    2.2399    0.0000    0.0000    0.0000    0.0000;
    181    42    0.008008    0.05579    0.00912    221.1    0    0    0    0    1    0    0    14.2223    6.2956    -14.2029    -7.0899    0.0000    0.0000    0.0000    0.0000;
    43    84    0.007509    0.051295    0.00873    221.1    0    0    0    0    1    0    0    -2.5074    -5.9850    2.5102    5.1384    0.0000    0.0000    0.0000    0.0000;
    43    132    0.011052    0.075503    0.01285    221.1    0    0    0    0    1    0    0    -0.5826    5.1050    0.5863    -6.3447    0.0000    0.0000    0.0000    0.0000;
    44    200    0.014813    0.101195    0.01722    221.1    0    0    0    0    1    0    0    -9.4591    1.7487    9.4732    -3.3890    0.0000    0.0000    0.0000    0.0000;
    46    45    0.000936    0.049195    0    160    0    0    1    0    1    0    0    -33.0280    -4.4230    33.0379    4.9427    0.0000    0.0000    0.0000    0.0000;
    55    45    0.002593    0.018527    0.03378    402.36    0    0    0    0    1    0    0    -75.7313    -7.4862    75.8737    4.9463    0.0000    0.0000    0.0000    0.0000;
    102    45    0.0029    0.020715    0.03777    402.36    0    0    0    0    1    0    0    -39.6508    -2.8646    39.6941    -0.8106    0.0000    0.0000    0.0000    0.0000;
    45    187    0.003474    0.024821    0.04525    402.36    0    0    0    0    1    0    0    -148.6058    -9.0784    149.3335    9.4647    0.0000    0.0000    0.0000    0.0000;
    61    46    0.006971    0.048561    0.00794    221.1    0    0    0    0    1    0    0    -19.8686    -5.5854    19.8968    4.9502    0.0000    0.0000    0.0000    0.0000;
    122    46    0.010129    0.065419    0.01248    221.1    0    0    0    0    1    0    0    -4.4488    1.6998    4.4512    -2.9971    0.0000    0.0000    0.0000    0.0000;
    47    54    0.006678    0.045623    0.00776    221.1    0    0    0    0    1    0    0    21.1191    5.0228    -21.0893    -5.6418    0.0000    0.0000    0.0000    0.0000;
    47    66    0.007339    0.047401    0.00904    221.1    0    0    0    0    1    0    0    -23.5891    -5.7328    23.6294    5.0269    0.0000    0.0000    0.0000    0.0000;
    49    48    0.027149    0.532021    0    28.9    0    0    1    0    1    0    0    4.5300    2.1100    -4.5236    -1.9853    0.0000    0.0000    0.0000    0.0000;
    50    48    0.021719    0.404167    0    28.7    0    0    1    0    1    0    0    4.5300    2.1100    -4.5249    -2.0148    0.0000    0.0000    0.0000    0.0000;
    51    48    0.027149    0.612711    0    24.3    0    0    1    0    1    0    0    4.5300    2.1100    -4.5237    -1.9668    0.0000    0.0000    0.0000    0.0000;
    52    48    0.021719    0.379817    0    24.3    0    0    1    0    1    0    0    4.5300    2.1100    -4.5249    -2.0204    0.0000    0.0000    0.0000    0.0000;
    53    48    0.02121    0.576549    0    35.3    0    0    1    0    1    0    0    9.0700    3.4068    -9.0516    -2.9065    0.0000    0.0000    0.0000    0.0000;
    48    74    0.007959    0.054369    0.00925    221.1    0    0    0    0    1    0    0    37.1355    14.9145    -37.0120    -15.0238    0.0000    0.0000    0.0000    0.0000;
    54    66    0.007051    0.045544    0.00869    221.1    0    0    0    0    1    0    0    -45.6509    -10.7514    45.7970    10.7701    0.0000    0.0000    0.0000    0.0000;
    56    55    0.005152    0.124653    0    160    0    0    1    0    1    0    0    -5.5510    -1.0131    5.5526    1.0510    0.0000    0.0000    0.0000    0.0000;
    81    55    0.005467    0.039054    0.0712    402.36    0    0    0    0    1    0    0    -84.5408    -3.3507    84.9165    -1.4060    0.0000    0.0000    0.0000    0.0000;
    55    102    0.001246    0.008902    0.01623    402.36    0    0    0    0    1    0    0    -65.4894    -11.2040    65.5415    9.8696    0.0000    0.0000    0.0000    0.0000;
    55    112    0.004166    0.029763    0.05426    402.36    0    0    0    0    1    0    0    24.1864    6.8675    -24.1594    -12.3515    0.0000    0.0000    0.0000    0.0000;
    55    128    0.003415    0.024395    0.04448    402.36    0    0    0    0    1    0    0    26.5652    12.1777    -26.5354    -16.6158    0.0000    0.0000    0.0000    0.0000;
    56    103    0.004282    0.02983    0.00488    221.1    0    0    0    0    1    0    0    3.7610    0.5031    -3.7604    -1.0096    0.0000    0.0000    0.0000    0.0000;
    57    159    0.00752    0.051369    0.00874    221.1    0    0    0    0    1    0    0    19.7054    3.7683    -19.6752    -4.4426    0.0000    0.0000    0.0000    0.0000;
    95    58    0.009836    0.063526    0.01212    221.1    0    0    0    0    1    0    0    9.2750    14.3433    -9.2459    -15.4114    0.0000    0.0000    0.0000    0.0000;
    177    58    0.014049    0.095972    0.01633    221.1    0    0    0    0    1    0    0    3.1420    -7.2998    -3.1348    5.6823    0.0000    0.0000    0.0000    0.0000;
    59    119    0.011209    0.072397    0.01381    221.1    0    0    0    0    1    0    0    -8.7663    3.5854    8.7771    -4.8707    0.0000    0.0000    0.0000    0.0000;
    59    139    0.009665    0.062426    0.01191    221.1    0    0    0    0    1    0    0    1.7463    -5.5854    -1.7435    4.4283    0.0000    0.0000    0.0000    0.0000;
    60    97    0.012274    0.079279    0.01512    221.1    0    0    0    0    1    0    0    35.5435    2.2829    -35.3914    -2.8441    0.0000    0.0000    0.0000    0.0000;
    134    60    0.009007    0.062749    0.01026    221.1    0    0    0    0    1    0    0    41.3231    3.8651    -41.1735    -3.8829    0.0000    0.0000    0.0000    0.0000;
    61    103    0.006539    0.045556    0.00745    221.1    0    0    0    0    1    0    0    -8.2714    -2.4346    8.2759    1.6881    0.0000    0.0000    0.0000    0.0000;
    159    62    0.008634    0.058979    0.01003    221.1    0    0    0    0    1    0    0    3.2851    0.1247    -3.2841    -1.1244    0.0000    0.0000    0.0000    0.0000;
    160    62    0.007628    0.053144    0.00869    221.1    0    0    0    0    1    0    0    31.0841    8.3135    -31.0059    -8.6456    0.0000    0.0000    0.0000    0.0000;
    63    66    0.011949    0.083244    0.01361    221.1    0    0    0    0    1    0    0    -57.6863    -1.2774    58.0629    2.4525    0.0000    0.0000    0.0000    0.0000;
    63    184    0.017963    0.116023    0.02214    221.1    0    0    0    0    1    0    0    44.8963    -2.3626    -44.5532    2.2531    0.0000    0.0000    0.0000    0.0000;
    65    64    0.00128    0.10157    0    195.5    0    0    1    0    1    0    0    60.6600    12.1235    -60.6147    -8.5301    0.0000    0.0000    0.0000    0.0000;
    67    66    0.020951    0.144786    0    30    0    0    1    0    1    0    0    4.7000    2.1900    -4.6948    -2.1540    0.0000    0.0000    0.0000    0.0000;
    68    66    0.00689    0.264997    0    73    0    0    1    0    1    0    0    27.9200    1.8849    -27.8701    0.0337    0.0000    0.0000    0.0000    0.0000;
    69    66    0.00441    0.09499    0    70.5    0    0    1    0    1    0    0    27.9200    3.6581    -27.8877    -2.9618    0.0000    0.0000    0.0000    0.0000;
    70    66    0.00689    0.199449    0    70.5    0    0    1    0    1    0    0    27.9200    1.9520    -27.8701    -0.5075    0.0000    0.0000    0.0000    0.0000;
    71    66    0.003528    0.081544    0    68    0    0    1    0    1    0    0    27.9200    4.4588    -27.8939    -3.8561    0.0000    0.0000    0.0000    0.0000;
    72    66    0.003528    0.074599    0    68    0    0    1    0    1    0    0    27.9200    4.8213    -27.8938    -4.2676    0.0000    0.0000    0.0000    0.0000;
    73    66    0.00689    0.146423    0    65    0    0    1    0    1    0    0    27.9200    2.2060    -27.8700    -1.1442    0.0000    0.0000    0.0000    0.0000;
    66    158    0.004993    0.032251    0.00615    221.1    0    0    0    0    1    0    0    44.4912    -3.3920    -44.3986    3.3308    0.0000    0.0000    0.0000    0.0000;
    74    190    0.008894    0.06076    0.01034    221.1    0    0    0    0    1    0    0    7.5020    6.6138    -7.4927    -7.5985    0.0000    0.0000    0.0000    0.0000;
    76    75    0.038464    0.784328    0    24.3    0    0    1    0    1    0    0    1.2000    2.0400    -1.1980    -1.9986    0.0000    0.0000    0.0000    0.0000;
    77    75    0.08013    2.192105    0    7.4    0    0    1    0    1    0    0    0.7200    1.1876    -0.7186    -1.1485    0.0000    0.0000    0.0000    0.0000;
    78    75    0.008544    0.181406    0    65    0    0    1    0    1    0    0    0.0000    0.0000    0.0000    0.0000    0.0000    0.0000    0.0000    0.0000;
    79    75    0.01068    0.277774    0    62.1    0    0    1    0    1    0    0    0.0000    0.0000    0.0000    0.0000    0.0000    0.0000    0.0000    0.0000;
    108    75    0.010988    0.070969    0.01354    221.1    0    0    0    0    1    0    0    -20.3237    -4.6073    20.3699    3.5190    0.0000    0.0000    0.0000    0.0000;
    75    157    0.013487    0.087112    0.01662    221.1    0    0    0    0    1    0    0    -23.7934    -1.8918    23.8677    0.6541    0.0000    0.0000    0.0000    0.0000;
    80    100    0.021463    0.149525    0.02444    221.1    0    0    0    0    1    0    0    8.1137    -7.2569    -8.0926    4.8550    0.0000    0.0000    0.0000    0.0000;
    80    143    0.020594    0.14347    0.02345    221.1    0    0    0    0    1    0    0    -10.4937    6.5769    10.5277    -8.7479    0.0000    0.0000    0.0000    0.0000;
    82    81    0.00097    0.042371    0    250    0    0    1    0    1    0    0    -55.3166    -9.8829    55.3464    11.1818    0.0000    0.0000    0.0000    0.0000;
    81    178    0.006598    0.047137    0.08594    402.36    0    0    0    0    1    0    0    29.1944    -7.8311    -29.1396    -0.7132    0.0000    0.0000    0.0000    0.0000;
    82    195    0.003845    0.026265    0.00447    221.1    0    0    0    0    1    0    0    43.3566    6.4729    -43.2848    -6.4410    0.0000    0.0000    0.0000    0.0000;
    83    146    0.005382    0.036767    0.00626    221.1    0    0    0    0    1    0    0    -12.1535    -11.7370    12.1681    11.1924    0.0000    0.0000    0.0000    0.0000;
    83    186    0.00792    0.055174    0.00902    221.1    0    0    0    0    1    0    0    -31.4171    6.8103    31.4975    -7.1732    0.0000    0.0000    0.0000    0.0000;
    84    113    0.006652    0.04544    0.00773    221.1    0    0    0    0    1    0    0    -8.0702    -6.7284    8.0773    6.0048    0.0000    0.0000    0.0000    0.0000;
    85    120    0.007786    0.050291    0.00959    221.1    0    0    0    0    1    0    0    -8.7260    -1.1198    8.7320    0.2011    0.0000    0.0000    0.0000    0.0000;
    86    101    0.00512    0.033072    0.00631    221.1    0    0    0    0    1    0    0    -6.2866    -3.8735    6.2893    3.2699    0.0000    0.0000    0.0000    0.0000;
    142    86    0.003387    0.023141    0.00394    221.1    0    0    0    0    1    0    0    10.3699    -1.8528    -10.3661    1.4914    0.0000    0.0000    0.0000    0.0000;
    86    193    0.006606    0.042664    0.00814    221.1    0    0    0    0    1    0    0    -17.7242    -5.5433    17.7471    4.8881    0.0000    0.0000    0.0000    0.0000;
    88    87    0.000832    0.034189    0    350    0    0    1    0    1    0    0    -113.2284    -13.0598    113.3327    17.3464    0.0000    0.0000    0.0000    0.0000;
    149    87    0.001621    0.011579    0.02111    402.36    0    0    0    0    1    0    0    113.5353    16.5728    -113.3327    -17.3464    0.0000    0.0000    0.0000    0.0000;
...